/*--------------------------------*- C++ -*----------------------------------*\
  =========                 |
  \\      /  F ield         | OpenFOAM: The Open Source CFD Toolbox
   \\    /   O peration     | Website:  https://openfoam.org
    \\  /    A nd           | Version:  9
     \\/     M anipulation  |
\*---------------------------------------------------------------------------*/
FoamFile
{
    format      ascii;
    class       volScalarField;
    object      T;
}
// * * * * * * * * * * * * * * * * * * * * * * * * * * * * * * * * * * * * * //

dimensions      [0 0 0 1 0 0 0];

internalField   uniform 100;

boundaryField
{
    left
    {
        type            fixedValue;
        value           uniform 200;
    }
	
    right
    {
        type            fixedValue;
        value           uniform 100;
    }
	
    // defaultFaces
    // {
    //     type            zeroGradient;
    // }
	
    defaultFaces
    {
        type            fixedGradient;
		gradient        uniform 1e-1;
    }   

}

// ************************************************************************* //
